MODEL 1
REMARK VINA RESULT:   -11.722      0.000      0.000
REMARK INTER + INTRA:         -14.666
REMARK INTER:                 -14.121
REMARK INTRA:                  -0.545
REMARK UNBOUND:                -0.545
REMARK  4 active torsions:
REMARK  status: ('A' for Active; 'I' for Inactive)
REMARK    1  A    between atoms: C8_5  and  C16_13
REMARK    2  A    between atoms: C16_13  and  O3_21
REMARK    3  A    between atoms: C19_14  and  C17_22
REMARK    4  A    between atoms: N1_18  and  C17_22
ROOT
ATOM      1  C1  LOD d 401     -32.455 -11.011 -16.959  0.00  0.00     0.024 A
ATOM      2  C2  LOD d 401     -33.671 -11.155 -17.618  0.00  0.00     0.034 A
ATOM      3  C3  LOD d 401     -33.829 -10.847 -18.986  0.00  0.00     0.031 A
ATOM      4  C7  LOD d 401     -26.508  -7.245 -20.382  0.00  0.00     0.050 A
ATOM      5  C8  LOD d 401     -25.182  -7.531 -19.969  0.00  0.00     0.040 A
ATOM      6  C9  LOD d 401     -24.914  -8.695 -19.227  0.00  0.00     0.021 A
ATOM      7  C10 LOD d 401     -25.960  -9.559 -18.912  0.00  0.00     0.040 A
ATOM      8  C11 LOD d 401     -29.099 -10.623 -20.060  0.00  0.00     0.192 C
ATOM      9  C12 LOD d 401     -30.055  -8.348 -19.652  0.00  0.00     0.139 C
ATOM     10  C13 LOD d 401     -27.593  -8.106 -20.059  0.00  0.00     0.065 A
ATOM     11  C14 LOD d 401     -27.280  -9.295 -19.323  0.00  0.00     0.095 A
ATOM     12  C15 LOD d 401     -30.383  -9.786 -20.003  0.00  0.00     0.026 C
ATOM     13  C22 LOD d 401     -32.615 -10.043 -21.095  0.00  0.00     0.040 C
ATOM     14  N1  LOD d 401     -28.923  -7.734 -20.328  0.00  0.00    -0.377 N
ATOM     15  O1  LOD d 401     -28.201 -10.277 -19.012  0.00  0.00    -0.348 OA
ATOM     16  C4  LOD d 401     -32.688 -10.394 -19.657  0.00  0.00    -0.049 A
ATOM     17  C5  LOD d 401     -31.455 -10.246 -19.025  0.00  0.00    -0.039 A
ATOM     18  C6  LOD d 401     -31.327 -10.551 -17.660  0.00  0.00     0.010 A
ATOM     19 CL1  LOD d 401     -35.003 -11.772 -16.695  0.00  0.00    -0.084 Cl
ATOM     20  C23 LOD d 401     -31.098  -9.965 -21.360  0.00  0.00     0.023 C
ENDROOT
BRANCH  14  21
ATOM     21  C17 LOD d 401     -29.261  -6.631 -21.221  0.00  0.00     0.127 C
BRANCH  21  22
ATOM     22  C19 LOD d 401     -30.216  -5.646 -20.494  0.00  0.00     0.003 C
ATOM     23  C20 LOD d 401     -29.636  -5.076 -19.185  0.00  0.00     0.006 C
ATOM     24  C21 LOD d 401     -30.314  -3.714 -19.539  0.00  0.00     0.001 C
ATOM     25  C18 LOD d 401     -30.313  -4.189 -21.027  0.00  0.00     0.006 C
ENDBRANCH  21  22
ENDBRANCH  14  21
BRANCH   5  26
ATOM     26  C16 LOD d 401     -24.066  -6.638 -20.288  0.00  0.00     0.176 C
ATOM     27  O2  LOD d 401     -24.000  -6.065 -21.330  0.00  0.00    -0.646 OA
BRANCH  26  28
ATOM     28  O3  LOD d 401     -23.129  -6.519 -19.315  0.00  0.00    -0.773 OA
ATOM     29  H   LOD d 401     -23.033  -5.709 -18.854  0.00  0.00     0.167 HD
ENDBRANCH  26  28
ENDBRANCH   5  26
TORSDOF 4
ENDMDL
